LTspice 24.1.0 for Windows
Circuit: C:\Users\PRAFUL\Desktop\Analog elex\As3\Draft1.net
Start Time: Thu Mar 13 18:40:05 2025
solver = Normal
Maximum thread count: 16
tnom = 27
temp = 27
method = modified trap
Direct Newton iteration for .op point succeeded.
Total elapsed time: 0.083 seconds.

Files loaded:
C:\Users\PRAFUL\Desktop\Analog elex\As3\Draft1.net
C:\Users\PRAFUL\AppData\Local\LTspice\lib\sub\LTC.lib

