LTspice 24.1.0 for Windows
Circuit: C:\Users\PRAFUL\Desktop\Analog elex\As2\1d.net
Start Time: Fri Feb  7 23:34:16 2025
solver = Normal
Maximum thread count: 16
tnom = 27
temp = 27
method = modified trap
Direct Newton iteration for .op point succeeded.
Total elapsed time: 0.059 seconds.

Files loaded:
C:\Users\PRAFUL\Desktop\Analog elex\As2\1d.net
C:\Users\PRAFUL\AppData\Local\LTspice\lib\cmp\standard.mos

