LTspice 24.1.0 for Windows
Circuit: C:\Users\PRAFUL\Desktop\Analog elex\As2\1e.net
Start Time: Fri Feb  7 23:45:39 2025
solver = Normal
Maximum thread count: 16
tnom = 27
temp = 27
method = modified trap
Direct Newton iteration for .op point succeeded.
Total elapsed time: 0.062 seconds.

Files loaded:
C:\Users\PRAFUL\Desktop\Analog elex\As2\1e.net
C:\Users\PRAFUL\AppData\Local\LTspice\lib\cmp\standard.mos

