LTspice 24.1.0 for Windows
Circuit: C:\Users\PRAFUL\Desktop\Analog elex\As4\Draft7.net
Start Time: Mon Mar 31 23:21:17 2025
solver = Normal
Maximum thread count: 16
tnom = 27
temp = 27
method = modified trap
Direct Newton iteration failed to find .op point.  (Use ".option noopiter" to skip.)
Starting Gmin stepping
Gmin = 10
Gmin = 1.07374
Gmin = 0.115292
Gmin = 0.0123794
Gmin = 0.00132923
Gmin = 0.000142725
Gmin = 1.5325e-05
Gmin = 1.6455e-06
Gmin = 1.76685e-07
Gmin = 1.89714e-08
Gmin = 2.03704e-09
Gmin = 2.18725e-10
Gmin = 2.34854e-11
Gmin = 2.52173e-12
Gmin = 2.70769e-13
Gmin = 0
Gmin stepping succeeded in finding the operating point.

Warning: Simulation tolerance relaxed to achieve convergence from 8.9999999986236810e-10 to 9.0000000086236815e-10 seconds.
Warning: Simulation tolerance relaxed to achieve convergence from 1.0000008999999984e-03 to 1.0000009000000084e-03 seconds.
Warning: Simulation tolerance relaxed to achieve convergence from 2.0000008999999986e-03 to 2.0000009000000086e-03 seconds.
Total elapsed time: 0.156 seconds.

Files loaded:
C:\Users\PRAFUL\Desktop\Analog elex\As4\Draft7.net
C:\Users\PRAFUL\AppData\Local\LTspice\lib\cmp\standard.bjt
C:\Users\PRAFUL\AppData\Local\LTspice\lib\sub\UniversalOpAmp2.lib

