LTspice 24.1.0 for Windows
Circuit: C:\Users\PRAFUL\Desktop\Analog elex\As5\2a.net
Start Time: Mon Mar 31 23:45:14 2025
solver = Normal
Maximum thread count: 16
tnom = 27
temp = 27
method = modified trap
Instance "M1": Length shorter than recommended for a level 1 MOSFET.
Instance "M1": Width narrower than recommended for a level 1 MOSFET.
Direct Newton iteration failed to find .op point.  (Use ".option noopiter" to skip.)
Starting Gmin stepping
Gmin = 10
Gmin = 1.07374
Gmin = 0.115292
Gmin = 0.0123794
Gmin = 0.00132923
Gmin = 0.000142725
Gmin = 1.5325e-05
Gmin = 1.6455e-06
Gmin = 1.76685e-07
Gmin = 1.89714e-08
Gmin = 2.03704e-09
Gmin = 2.18725e-10
Gmin = 2.34854e-11
Gmin = 2.52173e-12
Gmin = 2.70769e-13
Gmin = 0
Gmin stepping succeeded in finding the operating point.

.step r=3000
.step r=4000
.step r=5000
.step r=6000
.step r=7000
Total elapsed time: 0.625 seconds.

Files loaded:
C:\Users\PRAFUL\Desktop\Analog elex\As5\2a.net
C:\Users\PRAFUL\AppData\Local\LTspice\lib\cmp\standard.mos
C:\Users\PRAFUL\AppData\Local\LTspice\lib\sub\UniversalOpAmp2.lib

